xflr5 v6.10.04

 Calculated polar for: HS 602 © Hartmut Siegmann

 1 1 Reynolds number fixed          Mach number fixed         

 xtrf =   1.000 (top)        1.000 (bottom)
 Mach =   0.060     Re =     0.200 e 6     Ncrit =   9.000

  alpha     CL        CD       CDp       Cm    Top Xtr Bot Xtr   Cpmin    Chinge    XCp    
 ------- -------- --------- --------- -------- ------- ------- -------- --------- ---------
  -5.000  -0.2745   0.02195   0.01543  -0.0787  0.9679  0.0432  -2.6735   0.0000  -0.0432
  -4.500  -0.2060   0.01842   0.01140  -0.0811  0.9570  0.0435  -2.3790   0.0000  -0.1514
  -4.000  -0.1273   0.01579   0.00847  -0.0855  0.9495  0.0525  -2.0939   0.0000  -0.4327
  -3.500  -0.0503   0.01348   0.00649  -0.0905  0.9403  0.1337  -1.8749   0.0000  -1.5720
  -3.000   0.0170   0.01194   0.00618  -0.0937  0.9265  0.4445  -1.5398   0.0000   5.8013
  -2.500   0.0995   0.01177   0.00609  -0.0982  0.9188  0.5254  -1.1545   0.0000   1.2446
  -2.000   0.1703   0.01164   0.00588  -0.1003  0.9059  0.5709  -0.8346   0.0000   0.8423
  -1.500   0.2333   0.01156   0.00575  -0.1008  0.8879  0.6053  -0.5439   0.0000   0.6835
  -1.000   0.2982   0.01114   0.00536  -0.1016  0.8713  0.6368  -0.5124   0.0000   0.5913
  -0.500   0.3532   0.01102   0.00515  -0.1008  0.8475  0.6594  -0.5573   0.0000   0.5350
   0.000   0.4111   0.01071   0.00486  -0.1005  0.8272  0.6873  -0.6061   0.0000   0.4937
   1.000   0.5202   0.01050   0.00463  -0.0988  0.7789  0.7428  -0.7090   0.0000   0.4383
   1.500   0.5706   0.01035   0.00461  -0.0972  0.7547  0.7776  -0.7652   0.0000   0.4184
   2.000   0.6226   0.01032   0.00460  -0.0957  0.7273  0.8279  -0.8276   0.0000   0.4012
   2.500   0.6757   0.00997   0.00460  -0.0945  0.7029  1.0000  -0.8991   0.0000   0.3870
   3.000   0.7356   0.01033   0.00469  -0.0952  0.6715  1.0000  -1.0030   0.0000   0.3761
   3.500   0.7897   0.01050   0.00485  -0.0946  0.6422  1.0000  -1.1729   0.0000   0.3661
   4.000   0.8434   0.01084   0.00510  -0.0939  0.6075  1.0000  -1.4042   0.0000   0.3571
   4.500   0.8955   0.01124   0.00547  -0.0928  0.5672  1.0000  -1.7410   0.0000   0.3489
   5.000   0.9439   0.01163   0.00571  -0.0909  0.5091  1.0000  -2.1135   0.0000   0.3412
   5.500   0.9906   0.01226   0.00615  -0.0890  0.4485  1.0000  -2.5059   0.0000   0.3341
   6.000   1.0357   0.01310   0.00681  -0.0870  0.3905  1.0000  -2.9103   0.0000   0.3277
   6.500   1.0762   0.01417   0.00762  -0.0843  0.3134  1.0000  -3.3119   0.0000   0.3215
   7.000   1.1075   0.01592   0.00886  -0.0806  0.2035  1.0000  -3.6998   0.0000   0.3154
   7.500   1.1245   0.01908   0.01107  -0.0752  0.0764  1.0000  -3.9765   0.0000   0.3089
   8.000   1.1399   0.02210   0.01398  -0.0690  0.0432  1.0000  -4.1588   0.0000   0.3020
   8.500   1.1590   0.02440   0.01641  -0.0632  0.0330  1.0000  -4.3365   0.0000   0.2954
   9.000   1.1675   0.02810   0.02026  -0.0563  0.0283  1.0000  -4.4055   0.0000   0.2885
   9.500   1.1989   0.03161   0.02403  -0.0530  0.0262  1.0000  -4.5772   0.0000   0.2838
  10.000   1.2388   0.03644   0.02929  -0.0512  0.0255  1.0000  -4.7493   0.0000   0.2803
  10.500   1.2651   0.04219   0.03568  -0.0481  0.0257  1.0000  -4.8526   0.0000   0.2764
  11.000   1.2655   0.04839   0.04246  -0.0425  0.0264  1.0000  -4.9752   0.0000   0.2714
  11.500   1.2469   0.05506   0.04967  -0.0368  0.0271  1.0000  -5.0178   0.0000   0.2666
  12.000   1.2160   0.06277   0.05786  -0.0329  0.0277  1.0000  -4.9834   0.0000   0.2635
  12.500   1.1766   0.07224   0.06776  -0.0322  0.0283  1.0000  -4.8759   0.0000   0.2631
  14.000   1.0504   0.11236   0.10902  -0.0515  0.0322  1.0000  -4.1935   0.0000   0.2827


