xflr5 v6.10.04

 Calculated polar for: HS 520

 1 1 Reynolds number fixed          Mach number fixed         

 xtrf =   1.000 (top)        1.000 (bottom)
 Mach =   0.060     Re =     0.200 e 6     Ncrit =   9.000

  alpha     CL        CD       CDp       Cm    Top Xtr Bot Xtr   Cpmin    Chinge    XCp    
 ------- -------- --------- --------- -------- ------- ------- -------- --------- ---------
  -5.000  -0.3867   0.03875   0.03470  -0.0227  0.9226  0.0516  -1.9844   0.0000   0.1889
  -4.500  -0.3498   0.03349   0.02877  -0.0203  0.8758  0.0544  -1.9225   0.0000   0.1896
  -4.000  -0.2972   0.02494   0.01872  -0.0159  0.8466  0.0237  -2.4010   0.0000   0.1936
  -3.500  -0.2493   0.01935   0.01227  -0.0135  0.8217  0.0228  -2.4304   0.0000   0.1925
  -3.000  -0.1991   0.01651   0.00889  -0.0110  0.7959  0.0245  -2.3214   0.0000   0.1915
  -2.500  -0.1494   0.01349   0.00581  -0.0090  0.7726  0.0574  -2.2694   0.0000   0.1856
  -2.000  -0.1006   0.01206   0.00453  -0.0073  0.7500  0.1633  -1.9215   0.0000   0.1730
  -1.500  -0.0550   0.00911   0.00436  -0.0039  0.7318  0.8955  -1.4705   0.0000   0.1728
  -1.000   0.0569   0.00920   0.00393  -0.0142  0.7060  1.0000  -0.8180   0.0000   0.5021
  -0.500   0.1083   0.00923   0.00372  -0.0134  0.6868  1.0000  -0.5176   0.0000   0.3738
   0.000   0.1582   0.00931   0.00345  -0.0119  0.6635  1.0000  -0.5301   0.0000   0.3245
   0.500   0.2103   0.00950   0.00345  -0.0110  0.6434  1.0000  -0.5869   0.0000   0.3013
   1.000   0.2622   0.00959   0.00337  -0.0100  0.6222  1.0000  -0.6481   0.0000   0.2865
   1.500   0.3138   0.00986   0.00344  -0.0089  0.5985  1.0000  -0.7168   0.0000   0.2763
   2.000   0.3666   0.00994   0.00346  -0.0080  0.5766  1.0000  -0.7925   0.0000   0.2695
   2.500   0.4183   0.01026   0.00356  -0.0069  0.5495  1.0000  -0.8761   0.0000   0.2638
   3.000   0.4717   0.01036   0.00368  -0.0061  0.5271  1.0000  -0.9720   0.0000   0.2601
   3.500   0.5238   0.01070   0.00385  -0.0052  0.4970  1.0000  -1.0796   0.0000   0.2565
   4.000   0.5773   0.01085   0.00404  -0.0045  0.4711  1.0000  -1.2048   0.0000   0.2541
   4.500   0.6299   0.01122   0.00431  -0.0037  0.4388  1.0000  -1.3461   0.0000   0.2518
   5.000   0.6824   0.01160   0.00466  -0.0030  0.4040  1.0000  -1.5081   0.0000   0.2498
   5.500   0.7353   0.01198   0.00509  -0.0024  0.3679  1.0000  -1.6764   0.0000   0.2483
   6.000   0.7873   0.01259   0.00568  -0.0019  0.3304  1.0000  -1.9205   0.0000   0.2468
   6.500   0.8383   0.01332   0.00639  -0.0013  0.2868  1.0000  -2.2463   0.0000   0.2455
   7.000   0.8884   0.01427   0.00726  -0.0008  0.2436  1.0000  -2.6097   0.0000   0.2442
   7.500   0.9372   0.01544   0.00839  -0.0002  0.2015  1.0000  -2.9816   0.0000   0.2429
   8.000   0.9843   0.01682   0.00973   0.0004  0.1612  1.0000  -3.3588   0.0000   0.2417
   8.500   1.0293   0.01842   0.01138   0.0011  0.1252  1.0000  -3.7443   0.0000   0.2404
   9.000   1.0712   0.02034   0.01330   0.0019  0.0941  1.0000  -4.3456   0.0000   0.2390
   9.500   1.1081   0.02279   0.01579   0.0030  0.0663  1.0000  -4.9259   0.0000   0.2374
  10.000   1.1419   0.02533   0.01848   0.0044  0.0488  1.0000  -5.4829   0.0000   0.2356
  10.500   1.1628   0.02997   0.02350   0.0071  0.0409  1.0000  -5.8678   0.0000   0.2326
  11.000   1.1836   0.03396   0.02792   0.0093  0.0369  1.0000  -6.2852   0.0000   0.2302
  11.500   1.1892   0.03873   0.03310   0.0118  0.0346  1.0000  -6.5767   0.0000   0.2274
  12.000   1.1893   0.04350   0.03816   0.0123  0.0320  1.0000  -6.8737   0.0000   0.2261
  12.500   1.1835   0.04936   0.04426   0.0114  0.0298  1.0000  -7.1157   0.0000   0.2261
  13.000   1.1642   0.05780   0.05319   0.0088  0.0289  1.0000  -7.1473   0.0000   0.2273
  13.500   1.1352   0.06845   0.06422   0.0039  0.0284  1.0000  -7.0524   0.0000   0.2306
  14.000   1.0987   0.08127   0.07741  -0.0034  0.0285  1.0000  -6.8386   0.0000   0.2364
  14.500   1.0405   0.10063   0.09708  -0.0160  0.0299  1.0000  -6.2592   0.0000   0.2482
  15.000   0.8759   0.15652   0.15298  -0.0470  0.0400  1.0000  -3.4031   0.0000   0.2887


