  
       XFOIL         Version 6.96
  
 Calculated polar for: Dayton-Wright T-1                               
  
 1 1 Reynolds number fixed          Mach number fixed         
  
 xtrf =   1.000 (top)        1.000 (bottom)  
 Mach =   0.061     Re =     0.200 e 6     Ncrit =   9.000
  
   alpha    CL        CD       CDp       CM     Top_Xtr  Bot_Xtr
  ------ -------- --------- --------- -------- -------- --------
  -5.000   0.1040   0.01669   0.00906  -0.0983   0.8675   0.1549
  -4.500   0.1705   0.01583   0.00827  -0.0996   0.8587   0.1916
  -4.000   0.2287   0.01518   0.00776  -0.0992   0.8450   0.2387
  -3.500   0.2858   0.01452   0.00716  -0.0984   0.8285   0.2883
  -3.000   0.3421   0.01398   0.00665  -0.0976   0.8115   0.3352
  -2.500   0.3963   0.01345   0.00620  -0.0966   0.7926   0.3798
  -2.000   0.4472   0.01296   0.00583  -0.0950   0.7708   0.4283
  -1.500   0.4962   0.01217   0.00543  -0.0933   0.7496   0.5200
  -0.500   0.6966   0.01134   0.00531  -0.1098   0.7002   1.0000
   0.000   0.7429   0.01147   0.00522  -0.1078   0.6722   1.0000
   0.500   0.7885   0.01169   0.00521  -0.1056   0.6434   1.0000
   1.000   0.8317   0.01200   0.00532  -0.1031   0.6123   1.0000
   1.500   0.8728   0.01238   0.00551  -0.1001   0.5789   1.0000
   2.000   0.9114   0.01284   0.00577  -0.0968   0.5424   1.0000
   2.500   0.9473   0.01338   0.00612  -0.0930   0.5030   1.0000
   3.000   0.9819   0.01404   0.00655  -0.0891   0.4649   1.0000
   3.500   1.0170   0.01480   0.00710  -0.0854   0.4312   1.0000
   4.000   1.0543   0.01562   0.00775  -0.0824   0.4040   1.0000
   4.500   1.0941   0.01648   0.00848  -0.0799   0.3826   1.0000
   5.000   1.1360   0.01736   0.00927  -0.0780   0.3652   1.0000
   5.500   1.1784   0.01823   0.01011  -0.0762   0.3501   1.0000
   6.000   1.2207   0.01913   0.01100  -0.0745   0.3363   1.0000
   6.500   1.2662   0.02010   0.01195  -0.0736   0.3254   1.0000
   7.000   1.3075   0.02098   0.01290  -0.0719   0.3145   1.0000
   7.500   1.3460   0.02191   0.01396  -0.0698   0.3038   1.0000
   8.000   1.3886   0.02295   0.01501  -0.0686   0.2940   1.0000
   8.500   1.4147   0.02380   0.01605  -0.0644   0.2829   1.0000
   9.000   1.4403   0.02485   0.01726  -0.0606   0.2710   1.0000
   9.500   1.4635   0.02600   0.01853  -0.0568   0.2586   1.0000
  10.000   1.4840   0.02734   0.01995  -0.0529   0.2456   1.0000
  10.500   1.4964   0.02900   0.02183  -0.0485   0.2314   1.0000
  11.000   1.5057   0.03117   0.02416  -0.0445   0.2148   1.0000
  11.500   1.5145   0.03381   0.02705  -0.0412   0.1955   1.0000
  12.000   1.5199   0.03715   0.03055  -0.0384   0.1713   1.0000
  12.500   1.5160   0.04176   0.03517  -0.0358   0.1407   1.0000
  13.000   1.4980   0.04833   0.04169  -0.0336   0.1163   1.0000
  13.500   1.4738   0.05635   0.04976  -0.0324   0.0955   1.0000
  14.000   1.4421   0.06613   0.05962  -0.0326   0.0739   1.0000
  14.500   1.4053   0.07743   0.07099  -0.0340   0.0566   1.0000
  15.000   1.3695   0.08931   0.08299  -0.0365   0.0482   1.0000
  15.500   1.3366   0.10126   0.09508  -0.0396   0.0439   1.0000
  16.000   1.3115   0.11226   0.10624  -0.0429   0.0405   1.0000
  16.500   1.2932   0.12219   0.11625  -0.0461   0.0379   1.0000
  17.000   1.2862   0.13035   0.12453  -0.0490   0.0353   1.0000
  17.500   1.2866   0.13671   0.13085  -0.0512   0.0329   1.0000
  18.000   1.2900   0.14309   0.13740  -0.0539   0.0310   1.0000
