  
       XFOIL         Version 6.96
  
 Calculated polar for: EPPLER 904 AIRFOIL                              
  
 1 1 Reynolds number fixed          Mach number fixed         
  
 xtrf =   1.000 (top)        1.000 (bottom)  
 Mach =   0.061     Re =     0.200 e 6     Ncrit =   9.000
  
   alpha    CL        CD       CDp       CM     Top_Xtr  Bot_Xtr
  ------ -------- --------- --------- -------- -------- --------
  -4.500  -0.5069   0.03668   0.03136  -0.0196   0.9829   0.0624
