  
       XFOIL         Version 6.96
  
 Calculated polar for: FX 67-K-170/17 AIRFOIL                          
  
 1 1 Reynolds number fixed          Mach number fixed         
  
 xtrf =   1.000 (top)        1.000 (bottom)  
 Mach =   0.000     Re =     0.200 e 6     Ncrit =   9.000
  
   alpha    CL        CD       CDp       CM     Top_Xtr  Bot_Xtr
  ------ -------- --------- --------- -------- -------- --------
  -2.500   0.0415   0.03233   0.02420  -0.0818   0.7079   0.0624
