  
       XFOIL         Version 6.96
  
 Calculated polar for: BELL/WORTMANN FX 69-H-083 AIRFOIL               
  
 1 1 Reynolds number fixed          Mach number fixed         
  
 xtrf =   1.000 (top)        1.000 (bottom)  
 Mach =   0.000     Re =     0.200 e 6     Ncrit =   9.000
  
   alpha    CL        CD       CDp       CM     Top_Xtr  Bot_Xtr
  ------ -------- --------- --------- -------- -------- --------
  -3.000  -0.0810   0.01599   0.00817  -0.0475   0.9467   0.0468
