  
       XFOIL         Version 6.96
  
 Calculated polar for: GIII BL450 AIRFOIL                              
  
 1 1 Reynolds number fixed          Mach number fixed         
  
 xtrf =   1.000 (top)        1.000 (bottom)  
 Mach =   0.061     Re =     0.200 e 6     Ncrit =   9.000
  
   alpha    CL        CD       CDp       CM     Top_Xtr  Bot_Xtr
  ------ -------- --------- --------- -------- -------- --------
  -5.000  -0.3795   0.04755   0.04312  -0.0199   1.0000   0.0514
  -4.500  -0.3448   0.04270   0.03815  -0.0192   1.0000   0.0548
  -4.000  -0.3181   0.03861   0.03360  -0.0154   1.0000   0.0587
  -3.500  -0.2760   0.03434   0.02923  -0.0156   0.9951   0.0629
  -3.000  -0.1953   0.02978   0.02423  -0.0217   0.9802   0.0738
  -2.500  -0.1140   0.02645   0.02027  -0.0266   0.9624   0.0900
  -2.000  -0.0472   0.02253   0.01631  -0.0296   0.9370   0.1095
