  
       XFOIL         Version 6.96
  
 Calculated polar for: S1014                                           
  
 1 1 Reynolds number fixed          Mach number fixed         
  
 xtrf =   1.000 (top)        1.000 (bottom)  
 Mach =   0.061     Re =     0.200 e 6     Ncrit =   9.000
  
   alpha    CL        CD       CDp       CM     Top_Xtr  Bot_Xtr
  ------ -------- --------- --------- -------- -------- --------
  -5.000  -0.6332   0.01877   0.01346   0.0037   0.8969   0.5896
  -4.500  -0.5710   0.02119   0.01617   0.0049   0.8949   0.7041
  -4.000  -0.5627   0.02247   0.01733   0.0141   0.8915   0.7343
  -3.500  -0.5441   0.02394   0.01872   0.0218   0.8874   0.7547
  -3.000  -0.4964   0.02557   0.02027   0.0245   0.8830   0.7718
  -2.500  -0.4092   0.02751   0.02210   0.0205   0.8788   0.7852
