  
       XFOIL         Version 6.96
  
 Calculated polar for: S1091                                           
  
 1 1 Reynolds number fixed          Mach number fixed         
  
 xtrf =   1.000 (top)        1.000 (bottom)  
 Mach =   0.061     Re =     0.200 e 6     Ncrit =   9.000
  
   alpha    CL        CD       CDp       CM     Top_Xtr  Bot_Xtr
  ------ -------- --------- --------- -------- -------- --------
  -4.500  -0.1679   0.07296   0.06994  -0.0432   0.9831   0.0227
  -4.000  -0.1098   0.06517   0.06212  -0.0510   0.9731   0.0273
  -3.500   0.0202   0.05784   0.05451  -0.0786   0.9616   0.0313
  -3.000   0.0678   0.04909   0.04581  -0.0830   0.9499   0.0356
  -2.500   0.1859   0.04056   0.03692  -0.1032   0.9399   0.0443
  -2.000   0.2877   0.03334   0.02935  -0.1165   0.9331   0.0572
