  
       XFOIL         Version 6.96
  
 Calculated polar for: Glenn Martin 4                                  
  
 1 1 Reynolds number fixed          Mach number fixed         
  
 xtrf =   1.000 (top)        1.000 (bottom)  
 Mach =   0.061     Re =     0.200 e 6     Ncrit =   9.000
  
   alpha    CL        CD       CDp       CM     Top_Xtr  Bot_Xtr
  ------ -------- --------- --------- -------- -------- --------
  -4.500  -0.1602   0.04396   0.03955  -0.0658   0.8612   0.0790
  -4.000  -0.1365   0.03772   0.03240  -0.0590   0.8444   0.0870
  -3.500  -0.1179   0.02641   0.01951  -0.0477   0.8284   0.0565
  -3.000  -0.0553   0.02353   0.01610  -0.0473   0.8110   0.0627
  -2.500   0.0202   0.02066   0.01290  -0.0503   0.7857   0.0691
  -2.000   0.1182   0.01812   0.00997  -0.0581   0.7512   0.0788
  -1.500   0.2076   0.01628   0.00784  -0.0647   0.7044   0.0965
  -1.000   0.2735   0.01554   0.00688  -0.0667   0.6629   0.1294
  -0.500   0.3268   0.01540   0.00651  -0.0663   0.6297   0.1545
   0.000   0.3727   0.01518   0.00631  -0.0645   0.6015   0.2100
   0.500   0.6960   0.01566   0.00832  -0.1245   0.5513   1.0000
   1.000   0.7316   0.01602   0.00835  -0.1209   0.5276   1.0000
   1.500   0.7637   0.01639   0.00850  -0.1164   0.5042   1.0000
   2.000   0.7979   0.01679   0.00870  -0.1124   0.4830   1.0000
   2.500   0.8334   0.01723   0.00894  -0.1088   0.4634   1.0000
   3.000   0.8703   0.01770   0.00924  -0.1055   0.4462   1.0000
   3.500   0.9087   0.01818   0.00958  -0.1026   0.4313   1.0000
   4.000   0.9494   0.01870   0.00999  -0.1002   0.4184   1.0000
   4.500   0.9954   0.01927   0.01041  -0.0991   0.4079   1.0000
   5.000   1.0359   0.01981   0.01093  -0.0968   0.3978   1.0000
   5.500   1.0809   0.02044   0.01152  -0.0956   0.3888   1.0000
   6.000   1.1257   0.02107   0.01211  -0.0944   0.3808   1.0000
   6.500   1.1715   0.02180   0.01287  -0.0935   0.3732   1.0000
   7.000   1.2137   0.02249   0.01360  -0.0919   0.3657   1.0000
   7.500   1.2630   0.02335   0.01448  -0.0919   0.3589   1.0000
   8.000   1.2981   0.02415   0.01545  -0.0890   0.3523   1.0000
   8.500   1.3570   0.02506   0.01628  -0.0912   0.3452   1.0000
   9.000   1.3758   0.02597   0.01751  -0.0852   0.3392   1.0000
   9.500   1.4122   0.02669   0.01821  -0.0828   0.3299   1.0000
  10.000   1.4178   0.02762   0.01941  -0.0746   0.3210   1.0000
  10.500   1.4405   0.02841   0.02021  -0.0699   0.3106   1.0000
  11.000   1.4447   0.02950   0.02156  -0.0621   0.3017   1.0000
  11.500   1.4470   0.03073   0.02296  -0.0546   0.2906   1.0000
  12.000   1.4421   0.03230   0.02464  -0.0465   0.2775   1.0000
  12.500   1.4336   0.03456   0.02709  -0.0390   0.2631   1.0000
  13.000   1.4216   0.03780   0.03061  -0.0324   0.2421   1.0000
  13.500   1.3937   0.04318   0.03599  -0.0261   0.1995   1.0000
  14.000   1.3382   0.05238   0.04493  -0.0207   0.1467   1.0000
  14.500   1.2881   0.06257   0.05509  -0.0182   0.1119   1.0000
  15.000   1.2301   0.07473   0.06726  -0.0176   0.0649   1.0000
  15.500   1.1770   0.08722   0.07988  -0.0182   0.0518   1.0000
  16.000   1.1309   0.09952   0.09242  -0.0197   0.0435   1.0000
  16.500   1.1036   0.10967   0.10284  -0.0215   0.0399   1.0000
  17.000   1.0727   0.12063   0.11405  -0.0239   0.0367   1.0000
  17.500   1.0468   0.13111   0.12476  -0.0266   0.0347   1.0000
  18.000   1.0295   0.14039   0.13428  -0.0293   0.0334   1.0000
