  
       XFOIL         Version 6.96
  
 Calculated polar for: GOE 803 (HACKLINGER) AIRFOIL                    
  
 1 1 Reynolds number fixed          Mach number fixed         
  
 xtrf =   1.000 (top)        1.000 (bottom)  
 Mach =   0.061     Re =     0.200 e 6     Ncrit =   9.000
  
   alpha    CL        CD       CDp       CM     Top_Xtr  Bot_Xtr
  ------ -------- --------- --------- -------- -------- --------
  -4.000   0.1292   0.05521   0.05174  -0.1005   0.9281   0.0411
  -3.500   0.2080   0.04881   0.04522  -0.1128   0.9131   0.0446
  -3.000   0.3091   0.04204   0.03815  -0.1306   0.8954   0.0487
  -2.500   0.3726   0.03740   0.03333  -0.1362   0.8740   0.0521
  -2.000   0.4631   0.03228   0.02774  -0.1471   0.8497   0.0579
  -1.500   0.5219   0.02876   0.02402  -0.1498   0.8258   0.0642
  -1.000   0.5917   0.02511   0.01999  -0.1540   0.8005   0.0727
